logs/PSO_EjemploTwitter_kyrib_2025-02-10_17-56-15.log
Iniciando PSO Híbrido con modo Cod_Tramos

Iniciando PSO híbrido

=========== Iteración 1 ==============

Actualizando partícula 1

Comprobación de potencias generadas y demandadas:
Pd: [0.0, 0.0, 1.0]
Qd: [0.0, 0.0, 0.0]
Pgen: [0.0, 0.8199547894729377, 0.3090781084039104]
Qgen: [0.0, -0.4000376754392186, -0.9049644961800408]

Potencias activas inyectadas reales:
Piny: [0.0, 0.8199547894729377, -0.6909218915960895]

Potencias reactivas inyectadas:
Qiny: [0.0, -0.4000376754392186, -0.9049644961800408]

====Iteración Newton-Raphson: 1 ====


Potencias inyectadas calculadas con las tensiones actuales:
U: ComplexF64[1.0 + 0.0im, 1.0 + 0.0im, 1.0 + 0.0im]
Piny_new: [0.0, 2.449293598294706e-15, 2.449293598294706e-15]
Qiny_new: [0.0, 0.0, 0.0]

Desbalances de potencias:
ΔPiny: [0.0, 0.8199547894729352, -0.690921891596092]
ΔQiny: [0.0, -0.4000376754392186, -0.9049644961800408]

Desbalances de ángulos y tensiones (vector columna):
Δθ: [0.0316, -0.0187]
ΔV: [-0.0568, -0.0737]

Tensiones actualizadas (módulos y ángulos):

====Iteración Newton-Raphson: 2 ====


Potencias inyectadas calculadas con las tensiones actuales:
U: ComplexF64[1.0 + 0.0im, 0.942693492442487 + 0.029830100988329375im, 0.9261719704853363 - 0.01734888992299738im]
Piny_new: [0.0, 0.7381259003197792, -0.6133137896664547]
Qiny_new: [0.0, -0.36150551526435964, -0.8255973501755773]

Desbalances de potencias:
ΔPiny: [0.0, 0.08182888915315845, -0.07760810192963485]
ΔQiny: [0.0, -0.03853216017485894, -0.07936714600446348]

Desbalances de ángulos y tensiones (vector columna):
Δθ: [0.0035, -0.0031]
ΔV: [-0.0064, -0.0081]

Tensiones actualizadas (módulos y ángulos):

====Iteración Newton-Raphson: 3 ====


Potencias inyectadas calculadas con las tensiones actuales:
U: ComplexF64[1.0 + 0.0im, 0.9361822839110061 + 0.032922022659676434im, 0.9180615479938469 - 0.020016638130591256im]
Piny_new: [0.0, 0.8188568774702479, -0.689803032179392]
Qiny_new: [0.0, -0.3995399589898981, -0.9040017313767531]

Desbalances de potencias:
ΔPiny: [0.0, 0.001097912002689716, -0.0011188594166975374]
ΔQiny: [0.0, -0.0004977164493205066, -0.000962764803287719]

Desbalances de ángulos y tensiones (vector columna):
Δθ: [0.0, -0.0]
ΔV: [-0.0001, -0.0001]

Tensiones actualizadas (módulos y ángulos):

====Iteración Newton-Raphson: 4 ====


Potencias inyectadas calculadas con las tensiones actuales:
U: ComplexF64[1.0 + 0.0im, 0.9360981535792212 + 0.03296157710160924im, 0.9179584341012788 - 0.020058286190486798im]
Piny_new: [0.0, 0.8199545947018951, -0.6909216855906667]
Qiny_new: [0.0, -0.4000375865820259, -0.9049643341402276]

Desbalances de potencias:
ΔPiny: [0.0, 1.9477104251652833e-7, -2.0600542283144563e-7]
ΔQiny: [0.0, -8.885719271489734e-8, -1.6203981323403838e-7]

¡Convergencia alcanzada!

****Resultados finales****

1. Tensiones finales:
Nodo 1: V = 1.0∠0.0°
Nodo 2: V = 0.9367∠2.0168°
Nodo 3: V = 0.9182∠-1.249°

2. Potencias generadas por el slack:
Pgen_slack: -0.12903290911122162 p.u.
Qgen_slack: 1.4594341231950008 p.u.

3. Pérdidas totales:
P_totales: -1.1234373487045701e-8 p.u.
Q_totales: 0.5759569623670269 p.u.

Violaciones de tensión: 0.0

Tensiones de la línea 1-2:

Corrientes de la línea 1-2:
I_1 = 0.719∠-117.2850°
I_2 = 0.719∠62.7150°

Potencias aparentes de la línea 1-2:
S_1 = -0.32959999999999995 + 0.6389999999999993im
S_2 = 0.32959999999999995 - 0.5873042839999995im

Violación de flujo en la línea 1-2: 0.0

Tensiones de la línea 1-3:

Corrientes de la línea 1-3:
I_1 = 0.8446∠-76.2599°
I_3 = 0.8446∠103.7401°

Potencias aparentes de la línea 1-3:
S_1 = 0.20059999999999997 + 0.8203999999999994im
S_3 = -0.20059999999999997 - 0.7490703479999994im

Violación de flujo en la línea 1-3: 0.0

Tensiones de la línea 2-3:

Corrientes de la línea 2-3:
I_2 = 3.7086∠69.5276°
I_3 = 3.1541∠12.4923°

Potencias aparentes de la línea 2-3:
S_2 = 1.12098585638676 - 3.2153213427107987im
S_3 = 2.9051255479146803 - 0.5371601232701193im

Violación de flujo en la línea 2-3: 0.0

Pérdidas totales:
P_totales = 4.0261114043014405
Q_totales = -3.6294560979809183

Información de Generadores:
----------------------------

Generador 1:
Estado u: 0.9801
P inicial: -0.13 MW
Q inicial: 1.46 MVAr
Límites P: [-500, 500] MW
Límites Q: [-100, 100] MVAr
P ajustada: -0.13 MW
Q ajustada: 1.46 MVAr
Estado: Encendido

Generador 2:
Estado u: 0.34
P inicial: 0.82 MW
Q inicial: -0.4 MVAr
Límites P: [10, 250] MW
Límites Q: [-100, 100] MVAr
P ajustada: 0.82 MW
Q ajustada: -0.4 MVAr
Estado: Encendido

Generador 3:
Estado u: 0.138
P inicial: 0.31 MW
Q inicial: -0.9 MVAr
Límites P: [10, 450] MW
Límites Q: [-100, 100] MVAr
P ajustada: 0.31 MW
Q ajustada: -0.9 MVAr
Estado: Encendido
fitValue: 37.47189092215922

Actualizando partícula 2
fitValue: Inf

Actualizando partícula 3
fitValue: Inf

Actualizando partícula 4

Comprobación de potencias generadas y demandadas:
Pd: [0.0, 0.0, 1.0]
Qd: [0.0, 0.0, 0.0]
Pgen: [0.0, 2.4146685089992044, 0.0]
Qgen: [0.0, 0.9288904241660034, 0.0]

Potencias activas inyectadas reales:
Piny: [0.0, 2.4146685089992044, -1.0]

Potencias reactivas inyectadas:
Qiny: [0.0, 0.9288904241660034, 0.0]

====Iteración Newton-Raphson: 1 ====


Potencias inyectadas calculadas con las tensiones actuales:
U: ComplexF64[1.0 + 0.0im, 1.0 + 0.0im, 1.0 + 0.0im]
Piny_new: [0.0, 2.449293598294706e-15, 2.449293598294706e-15]
Qiny_new: [0.0, 0.0, 0.0]

Desbalances de potencias:
ΔPiny: [0.0, 2.4146685089992017, -1.0000000000000024]
ΔQiny: [0.0, 0.9288904241660034, 0.0]

Desbalances de ángulos y tensiones (vector columna):
Δθ: [0.1276, 0.0138]
ΔV: [0.0619, 0.031]

Tensiones actualizadas (módulos y ángulos):

====Iteración Newton-Raphson: 2 ====


Potencias inyectadas calculadas con las tensiones actuales:
U: ComplexF64[1.0 + 0.0im, 1.0532867156014927 + 0.13518130148486598im, 1.0308645301169965 + 0.01424980943595838im]
Piny_new: [0.0, 2.5952577534191876, -1.1009466442109384]
Qiny_new: [0.0, 1.1436484052347962, 0.07182719985126394]

Desbalances de potencias:
ΔPiny: [0.0, -0.18058924441998325, 0.10094664421093835]
ΔQiny: [0.0, -0.21475798106879274, -0.07182719985126394]

Desbalances de ángulos y tensiones (vector columna):
Δθ: [-0.0062, 0.0004]
ΔV: [-0.0135, -0.0098]

Tensiones actualizadas (módulos y ángulos):

====Iteración Newton-Raphson: 3 ====


Potencias inyectadas calculadas con las tensiones actuales:
U: ComplexF64[1.0 + 0.0im, 1.0406927001647572 + 0.12705630509458052im, 1.0210912623548072 + 0.01448698230460071im]
Piny_new: [0.0, 2.417158913219295, -1.001726039227479]
Qiny_new: [0.0, 0.9319361613798566, 0.0010032969418947372]

Desbalances de potencias:
ΔPiny: [0.0, -0.002490404220090614, 0.0017260392274789371]
ΔQiny: [0.0, -0.00304573721385315, -0.0010032969418947372]

Desbalances de ángulos y tensiones (vector columna):
Δθ: [-0.0001, 0.0]
ΔV: [-0.0002, -0.0001]

Tensiones actualizadas (módulos y ángulos):

====Iteración Newton-Raphson: 4 ====


Potencias inyectadas calculadas con las tensiones actuales:
U: ComplexF64[1.0 + 0.0im, 1.0405066536747543 + 0.1269540086303669im, 1.0209493658360163 + 0.014512852781689758im]
Piny_new: [0.0, 2.414669033487301, -1.000000419366728]
Qiny_new: [0.0, 0.9288910656806054, 2.2102943822592472e-7]

Desbalances de potencias:
ΔPiny: [0.0, -5.244880965094012e-7, 4.1936672801057284e-7]
ΔQiny: [0.0, -6.415146019955742e-7, -2.2102943822592472e-7]

¡Convergencia alcanzada!

****Resultados finales****

1. Tensiones finales:
Nodo 1: V = 1.0∠0.0°
Nodo 2: V = 1.0482∠6.9557°
Nodo 3: V = 1.0211∠0.8136°

2. Potencias generadas por el slack:
Pgen_slack: -1.4146686141205644 p.u.
Qgen_slack: -0.6145601951077051 p.u.

3. Pérdidas totales:
P_totales: -1.0512136006113337e-7 p.u.
Q_totales: 0.8356043443067117 p.u.

Violaciones de tensión: 0.0

Tensiones de la línea 1-2:

Corrientes de la línea 1-2:
I_1 = 1.3326∠162.3020°
I_2 = 1.3326∠-17.6980°

Potencias aparentes de la línea 1-2:
S_1 = -1.2694999999999999 - 0.4051000000000009im
S_2 = 1.2694999999999999 + 0.5826736260000009im

Violación de flujo en la línea 1-2: 0.0

Tensiones de la línea 1-3:

Corrientes de la línea 1-3:
I_1 = 0.2548∠124.7065°
I_3 = 0.2548∠-55.2935°

Potencias aparentes de la línea 1-3:
S_1 = -0.14509999999999998 - 0.20950000000000024im
S_3 = 0.14509999999999998 + 0.21599442600000027im

Violación de flujo en la línea 1-3: 0.0

Tensiones de la línea 2-3:

Corrientes de la línea 2-3:
I_2 = 4.0039∠78.8499°
I_3 = 4.0133∠14.6195°

Potencias aparentes de la línea 2-3:
S_2 = 0.8475067256413803 - 3.9994247911953984im
S_3 = 4.16928295908398 - 0.5609941322988186im

Violación de flujo en la línea 2-3: 0.0

Pérdidas totales:
P_totales = 5.01678968472536
Q_totales = -4.376350871494217

Información de Generadores:
----------------------------

Generador 1:
Estado u: 1.0
P inicial: -1.41 MW
Q inicial: -0.61 MVAr
Límites P: [-500, 500] MW
Límites Q: [-100, 100] MVAr
P ajustada: -1.41 MW
Q ajustada: -0.61 MVAr
Estado: Encendido

Generador 2:
Estado u: 0.8716
P inicial: 2.41 MW
Q inicial: 0.93 MVAr
Límites P: [10, 250] MW
Límites Q: [-100, 100] MVAr
P ajustada: 2.41 MW
Q ajustada: 0.93 MVAr
Estado: Encendido

Generador 3:
Estado u: 0.0
P inicial: 0.0 MW
Q inicial: 0.0 MVAr
Límites P: [10, 450] MW
Límites Q: [-100, 100] MVAr
P ajustada: 0.0 MW
Q ajustada: 0.0 MVAr
Estado: Apagado
fitValue: 44.14668298756484

Actualizando partícula 5

Comprobación de potencias generadas y demandadas:
Pd: [0.0, 0.0, 1.0]
Qd: [0.0, 0.0, 0.0]
Pgen: [0.0, 0.3454218921339519, 2.4955646287678332]
Qgen: [0.0, -0.79548175655504, 0.08889301307628784]

Potencias activas inyectadas reales:
Piny: [0.0, 0.3454218921339519, 1.4955646287678332]

Potencias reactivas inyectadas:
Qiny: [0.0, -0.79548175655504, 0.08889301307628784]

====Iteración Newton-Raphson: 1 ====


Potencias inyectadas calculadas con las tensiones actuales:
U: ComplexF64[1.0 + 0.0im, 1.0 + 0.0im, 1.0 + 0.0im]
Piny_new: [0.0, 2.449293598294706e-15, 2.449293598294706e-15]
Qiny_new: [0.0, 0.0, 0.0]

Desbalances de potencias:
ΔPiny: [0.0, 0.34542189213394947, 1.4955646287678308]
ΔQiny: [0.0, -0.79548175655504, 0.08889301307628784]

Desbalances de ángulos y tensiones (vector columna):
Δθ: [0.0729, 0.1112]
ΔV: [-0.0501, -0.0206]

Tensiones actualizadas (módulos y ángulos):

====Iteración Newton-Raphson: 2 ====


Potencias inyectadas calculadas con las tensiones actuales:
U: ComplexF64[1.0 + 0.0im, 0.9474093038305302 + 0.06916996537402391im, 0.9733589639920535 + 0.10870397460736274im]
Piny_new: [0.0, 0.33510014303477115, 1.443639256779098]
Qiny_new: [0.0, -0.7235994625407041, 0.15441101153662287]

Desbalances de potencias:
ΔPiny: [0.0, 0.010321749099180766, 0.05192537198873515]
ΔQiny: [0.0, -0.07188229401433599, -0.06551799846033503]

Desbalances de ángulos y tensiones (vector columna):
Δθ: [0.003, 0.0049]
ΔV: [-0.0081, -0.0076]

Tensiones actualizadas (módulos y ángulos):

====Iteración Newton-Raphson: 3 ====


Potencias inyectadas calculadas con las tensiones actuales:
U: ComplexF64[1.0 + 0.0im, 0.9391608405958697 + 0.07140319562120258im, 0.965240856305858 + 0.11263222578014737im]
Piny_new: [0.0, 0.3454470146371999, 1.4949071993763035]
Qiny_new: [0.0, -0.7947655372486716, 0.08952286790336256]

Desbalances de potencias:
ΔPiny: [0.0, -2.512250324798737e-5, 0.0006574293915297957]
ΔQiny: [0.0, -0.0007162193063684485, -0.0006298548270747134]

Desbalances de ángulos y tensiones (vector columna):
Δθ: [0.0, 0.0001]
ΔV: [-0.0001, -0.0001]

Tensiones actualizadas (módulos y ángulos):

====Iteración Newton-Raphson: 4 ====


Potencias inyectadas calculadas con las tensiones actuales:
U: ComplexF64[1.0 + 0.0im, 0.9390777329646082 + 0.07142157469074624im, 0.9651585692880675 + 0.11267707084553885im]
Piny_new: [0.0, 0.3454219128884683, 1.4955645424743864]
Qiny_new: [0.0, -0.7954816823183308, 0.08889308011240199]

Desbalances de potencias:
ΔPiny: [0.0, -2.0754516383281185e-8, 8.629344683264151e-8]
ΔQiny: [0.0, -7.423670922435122e-8, -6.703611414582422e-8]

¡Convergencia alcanzada!

****Resultados finales****

1. Tensiones finales:
Nodo 1: V = 1.0∠0.0°
Nodo 2: V = 0.9418∠4.3487°
Nodo 3: V = 0.9717∠6.6578°

2. Potencias generadas por el slack:
Pgen_slack: -1.8409864553628479 p.u.
Qgen_slack: 0.9576369774732427 p.u.

3. Pérdidas totales:
P_totales: 6.553893738825423e-8 p.u.
Q_totales: 0.7231618270767506 p.u.

Violaciones de tensión: 0.0

Tensiones de la línea 1-2:

Corrientes de la línea 1-2:
I_1 = 0.9387∠-139.5364°
I_2 = 0.9387∠40.4636°

Potencias aparentes de la línea 1-2:
S_1 = -0.7141999999999998 + 0.6091999999999995im
S_2 = 0.7141999999999998 - 0.5210793719999997im

Violación de flujo en la línea 1-2: 0.0

Tensiones de la línea 1-3:

Corrientes de la línea 1-3:
I_1 = 1.1794∠-162.8187°
I_3 = 1.1794∠17.1813°

Potencias aparentes de la línea 1-3:
S_1 = -1.1267999999999998 + 0.3483999999999998im
S_3 = 1.1267999999999998 - 0.20929391999999983im

Violación de flujo en la línea 1-3: 0.0

Tensiones de la línea 2-3:

Corrientes de la línea 2-3:
I_2 = 3.9202∠61.8683°
I_3 = 2.4464∠30.2595°

Potencias aparentes de la línea 2-3:
S_2 = 2.1735460330703997 - 3.1284073804319976im
S_3 = 2.0723751364444403 - 1.0067527882539573im

Violación de flujo en la línea 2-3: 0.0

Pérdidas totales:
P_totales = 4.24592116951484
Q_totales = -3.907933460685955

Información de Generadores:
----------------------------

Generador 1:
Estado u: 0.9723
P inicial: -1.84 MW
Q inicial: 0.96 MVAr
Límites P: [-500, 500] MW
Límites Q: [-100, 100] MVAr
P ajustada: -1.84 MW
Q ajustada: 0.96 MVAr
Estado: Encendido

Generador 2:
Estado u: 0.1818
P inicial: 0.35 MW
Q inicial: -0.8 MVAr
Límites P: [10, 250] MW
Límites Q: [-100, 100] MVAr
P ajustada: 0.35 MW
Q ajustada: -0.8 MVAr
Estado: Encendido

Generador 3:
Estado u: 0.5356
P inicial: 2.5 MW
Q inicial: 0.09 MVAr
Límites P: [10, 450] MW
Límites Q: [-100, 100] MVAr
P ajustada: 2.5 MW
Q ajustada: 0.09 MVAr
Estado: Encendido
fitValue: 98.32115909515326

Mejora encontrada: Inf

Mejor fitness actual: 31.087860847991813
Iteraciones sin mejora: 0

=========== Iteración 2 ==============

Actualizando partícula 1

Comprobación de potencias generadas y demandadas:
Pd: [0.0, 0.0, 1.0]
Qd: [0.0, 0.0, 0.0]
Pgen: [0.0, 1.5978723446310223, 0.0]
Qgen: [0.0, 0.24822695385918536, 0.0]

Potencias activas inyectadas reales:
Piny: [0.0, 1.5978723446310223, -1.0]

Potencias reactivas inyectadas:
Qiny: [0.0, 0.24822695385918536, 0.0]

====Iteración Newton-Raphson: 1 ====


Potencias inyectadas calculadas con las tensiones actuales:
U: ComplexF64[1.0 + 0.0im, 1.0 + 0.0im, 1.0 + 0.0im]
Piny_new: [0.0, 2.449293598294706e-15, 2.449293598294706e-15]
Qiny_new: [0.0, 0.0, 0.0]

Desbalances de potencias:
ΔPiny: [0.0, 1.59787234463102, -1.0000000000000024]
ΔQiny: [0.0, 0.24822695385918536, 0.0]

Desbalances de ángulos y tensiones (vector columna):
Δθ: [0.0732, -0.0134]
ΔV: [0.0165, 0.0083]

Tensiones actualizadas (módulos y ángulos):

====Iteración Newton-Raphson: 2 ====


Potencias inyectadas calculadas con las tensiones actuales:
U: ComplexF64[1.0 + 0.0im, 1.0138268567960331 + 0.07433628499938998im, 1.0081836527906944 - 0.013514760376239242im]
Piny_new: [0.0, 1.6298253937755967, -1.021610147544083]
Qiny_new: [0.0, 0.31795674157930287, 0.03931173511228251]

Desbalances de potencias:
ΔPiny: [0.0, -0.03195304914457431, 0.02161014754408308]
ΔQiny: [0.0, -0.06972978772011751, -0.03931173511228251]

Desbalances de ángulos y tensiones (vector columna):
Δθ: [-0.0008, 0.0002]
ΔV: [-0.0056, -0.0047]

Tensiones actualizadas (módulos y ángulos):

====Iteración Newton-Raphson: 3 ====


Potencias inyectadas calculadas con las tensiones actuales:
U: ComplexF64[1.0 + 0.0im, 1.008300951629055 + 0.07307654906521278im, 1.0035004253328923 - 0.013285407361175451im]
Piny_new: [0.0, 1.5980458601906686, -1.0001344431502914]
Qiny_new: [0.0, 0.2486144842918502, 0.0001920395076778487]

Desbalances de potencias:
ΔPiny: [0.0, -0.00017351555964628673, 0.00013444315029143006]
ΔQiny: [0.0, -0.00038753043266484544, -0.0001920395076778487]

Desbalances de ángulos y tensiones (vector columna):
Δθ: [-0.0, 0.0]
ΔV: [-0.0, -0.0]

Tensiones actualizadas (módulos y ángulos):

====Iteración Newton-Raphson: 4 ====


Potencias inyectadas calculadas con las tensiones actuales:
U: ComplexF64[1.0 + 0.0im, 1.0082707301280522 + 0.073070207686257im, 1.0034759253019165 - 0.013282973150302444im]
Piny_new: [0.0, 1.5978723499275387, -1.0000000045679887]
Qiny_new: [0.0, 0.24822696577181552, 5.072794104523093e-9]

Desbalances de potencias:
ΔPiny: [0.0, -5.296516336628088e-9, 4.567988654002875e-9]
ΔQiny: [0.0, -1.1912630160093585e-8, -5.072794104523093e-9]

¡Convergencia alcanzada!

****Resultados finales****

1. Tensiones finales:
Nodo 1: V = 1.0∠0.0°
Nodo 2: V = 1.0109∠4.1425°
Nodo 3: V = 1.0036∠-0.7563°

2. Potencias generadas por el slack:
Pgen_slack: -0.5978723453595426 p.u.
Qgen_slack: -0.11746655429968555 p.u.

3. Pérdidas totales:
P_totales: -7.28520244130948e-10 p.u.
Q_totales: 0.6343305845776244 p.u.

Violaciones de tensión: 0.0

Tensiones de la línea 1-2:

Corrientes de la línea 1-2:
I_1 = 0.7354∠173.5428°
I_2 = 0.7354∠-6.4572°

Potencias aparentes de la línea 1-2:
S_1 = -0.7306999999999998 - 0.08269999999999911im
S_2 = 0.7306999999999999 + 0.13677617799999908im

Violación de flujo en la línea 1-2: 0.0

Tensiones de la línea 1-3:

Corrientes de la línea 1-3:
I_1 = 0.1373∠14.6841°
I_3 = 0.1373∠-165.3159°

Potencias aparentes de la línea 1-3:
S_1 = 0.13279999999999997 - 0.03479999999999883im
S_3 = -0.13279999999999997 + 0.03668468799999883im

Violación de flujo en la línea 1-3: 0.0

Tensiones de la línea 2-3:

Corrientes de la línea 2-3:
I_2 = 3.8265∠73.2520°
I_3 = 3.7115∠15.4019°

Potencias aparentes de la línea 2-3:
S_2 = 1.05782177641744 - 3.6915412052751964im
S_3 = 3.6798475204709398 - 0.7324300700174564im

Violación de flujo en la línea 2-3: 0.0

Pérdidas totales:
P_totales = 4.73766929688838
Q_totales = -4.368010409292652

Información de Generadores:
----------------------------

Generador 1:
Estado u: 1.0
P inicial: -0.6 MW
Q inicial: -0.12 MVAr
Límites P: [-500, 500] MW
Límites Q: [-100, 100] MVAr
P ajustada: -0.6 MW
Q ajustada: -0.12 MVAr
Estado: Encendido

Generador 2:
Estado u: 0.5993
P inicial: 1.6 MW
Q inicial: 0.25 MVAr
Límites P: [10, 250] MW
Límites Q: [-100, 100] MVAr
P ajustada: 1.6 MW
Q ajustada: 0.25 MVAr
Estado: Encendido

Generador 3:
Estado u: 0.0
P inicial: 0.0 MW
Q inicial: 0.0 MVAr
Límites P: [10, 450] MW
Límites Q: [-100, 100] MVAr
P ajustada: 0.0 MW
Q ajustada: 0.0 MVAr
Estado: Apagado
fitValue: 35.97872343173982

Actualizando partícula 2

Comprobación de potencias generadas y demandadas:
Pd: [0.0, 0.0, 1.0]
Qd: [0.0, 0.0, 0.0]
Pgen: [0.0, 0.0, 0.6092324026195972]
Qgen: [0.0, 0.0, -0.7685307260820012]

Potencias activas inyectadas reales:
Piny: [0.0, 0.0, -0.3907675973804028]

Potencias reactivas inyectadas:
Qiny: [0.0, 0.0, -0.7685307260820012]

====Iteración Newton-Raphson: 1 ====


Potencias inyectadas calculadas con las tensiones actuales:
U: ComplexF64[1.0 + 0.0im, 1.0 + 0.0im, 1.0 + 0.0im]
Piny_new: [0.0, 2.449293598294706e-15, 2.449293598294706e-15]
Qiny_new: [0.0, 0.0, 0.0]

Desbalances de potencias:
ΔPiny: [0.0, -2.449293598294706e-15, -0.39076759738040523]
ΔQiny: [0.0, 0.0, -0.7685307260820012]

Desbalances de ángulos y tensiones (vector columna):
Δθ: [-0.013, -0.0261]
ΔV: [-0.0256, -0.0512]

Tensiones actualizadas (módulos y ángulos):

====Iteración Newton-Raphson: 2 ====


Potencias inyectadas calculadas con las tensiones actuales:
U: ComplexF64[1.0 + 0.0im, 0.9742996505707989 - 0.012691542234859202im, 0.9484426904519669 - 0.024713635761554446im]
Piny_new: [0.0, -0.006502560112570875, -0.3675492198515595]
Qiny_new: [0.0, 0.0016108207673680437, -0.7251512476915065]

Desbalances de potencias:
ΔPiny: [0.0, 0.006502560112570875, -0.02321837752884326]
ΔQiny: [0.0, -0.0016108207673680437, -0.04337947839049472]

Desbalances de ángulos y tensiones (vector columna):
Δθ: [-0.0004, -0.0015]
ΔV: [-0.0018, -0.0033]

Tensiones actualizadas (módulos y ángulos):

====Iteración Newton-Raphson: 3 ====


Potencias inyectadas calculadas con las tensiones actuales:
U: ComplexF64[1.0 + 0.0im, 0.9725416395099525 - 0.013025363446390043im, 0.9450824219165987 - 0.026045737238352476im]
Piny_new: [0.0, -4.841482615246681e-5, -0.3906625920212671]
Qiny_new: [0.0, 8.985607173847666e-6, -0.7683535590509651]

Desbalances de potencias:
ΔPiny: [0.0, 4.841482615246681e-5, -0.00010500535913571252]
ΔQiny: [0.0, -8.985607173847666e-6, -0.0001771670310360962]

Desbalances de ángulos y tensiones (vector columna):
Δθ: [-0.0, -0.0]
ΔV: [-0.0, -0.0]

Tensiones actualizadas (módulos y ángulos):

====Iteración Newton-Raphson: 4 ====


Potencias inyectadas calculadas con las tensiones actuales:
U: ComplexF64[1.0 + 0.0im, 0.9725342416764028 - 0.013025586589635992im, 0.9450684833324274 - 0.026051173060676128im]
Piny_new: [0.0, -1.1507287374534068e-9, -0.39076759535238753]
Qiny_new: [0.0, 2.136329235032723e-10, -0.7685307230067742]

Desbalances de potencias:
ΔPiny: [0.0, 1.1507287374534068e-9, -2.028015255728377e-9]
ΔQiny: [0.0, -2.136329235032723e-10, -3.0752270729905717e-9]

¡Convergencia alcanzada!

****Resultados finales****

1. Tensiones finales:
Nodo 1: V = 1.0∠0.0°
Nodo 2: V = 0.9726∠-0.7678°
Nodo 3: V = 0.9454∠-1.5814°

2. Potencias generadas por el slack:
Pgen_slack: 0.3907675965031232 p.u.
Qgen_slack: 0.8239727499116967 p.u.

3. Pérdidas totales:
P_totales: -8.77279582311985e-10 p.u.
Q_totales: 0.5023585747327415 p.u.

Violaciones de tensión: 0.0

Tensiones de la línea 1-2:

Corrientes de la línea 1-2:
I_1 = 0.304∠-64.6233°
I_2 = 0.304∠115.3767°

Potencias aparentes de la línea 1-2:
S_1 = 0.13029999999999997 + 0.2746999999999993im
S_2 = -0.13029999999999997 - 0.2654561819999993im

Violación de flujo en la línea 1-2: 0.0

Tensiones de la línea 1-3:

Corrientes de la línea 1-3:
I_1 = 0.6079∠-64.6278°
I_3 = 0.6079∠115.3722°

Potencias aparentes de la línea 1-3:
S_1 = 0.26049999999999995 + 0.5493000000000006im
S_3 = -0.26049999999999995 - 0.5123409260000005im

Violación de flujo en la línea 1-3: 0.0

Tensiones de la línea 2-3:

Corrientes de la línea 2-3:
I_2 = 4.0608∠64.1491°
I_3 = 2.8604∠9.9157°

Potencias aparentes de la línea 2-3:
S_2 = 1.5781871258136198 - 3.4998550199545986im
S_3 = 2.73383425802814 - 0.5157390720522572im

Violación de flujo en la línea 2-3: 0.0

Pérdidas totales:
P_totales = 4.31202138384176
Q_totales = -3.9693912000068554

Información de Generadores:
----------------------------

Generador 1:
Estado u: 1.0
P inicial: 0.39 MW
Q inicial: 0.82 MVAr
Límites P: [-500, 500] MW
Límites Q: [-100, 100] MVAr
P ajustada: 0.39 MW
Q ajustada: 0.82 MVAr
Estado: Encendido

Generador 2:
Estado u: 0.03
P inicial: 0.0 MW
Q inicial: 0.0 MVAr
Límites P: [10, 250] MW
Límites Q: [-100, 100] MVAr
P ajustada: 0.0 MW
Q ajustada: 0.0 MVAr
Estado: Apagado

Generador 3:
Estado u: 0.1926
P inicial: 0.61 MW
Q inicial: -0.77 MVAr
Límites P: [10, 450] MW
Límites Q: [-100, 100] MVAr
P ajustada: 0.61 MW
Q ajustada: -0.77 MVAr
Estado: Encendido
fitValue: 38.27697206104232

Actualizando partícula 3

Comprobación de potencias generadas y demandadas:
Pd: [0.0, 0.0, 1.0]
Qd: [0.0, 0.0, 0.0]
Pgen: [0.0, 0.9718396575703881, 2.705450083290981]
Qgen: [0.0, -0.2734669520246766, 0.18429549240499143]

Potencias activas inyectadas reales:
Piny: [0.0, 0.9718396575703881, 1.7054500832909811]

Potencias reactivas inyectadas:
Qiny: [0.0, -0.2734669520246766, 0.18429549240499143]

====Iteración Newton-Raphson: 1 ====


Potencias inyectadas calculadas con las tensiones actuales:
U: ComplexF64[1.0 + 0.0im, 1.0 + 0.0im, 1.0 + 0.0im]
Piny_new: [0.0, 2.449293598294706e-15, 2.449293598294706e-15]
Qiny_new: [0.0, 0.0, 0.0]

Desbalances de potencias:
ΔPiny: [0.0, 0.9718396575703857, 1.7054500832909787]
ΔQiny: [0.0, -0.2734669520246766, 0.18429549240499143]

Desbalances de ángulos y tensiones (vector columna):
Δθ: [0.1216, 0.1461]
ΔV: [-0.0121, 0.0032]

Tensiones actualizadas (módulos y ángulos):

====Iteración Newton-Raphson: 2 ====


Potencias inyectadas calculadas con las tensiones actuales:
U: ComplexF64[1.0 + 0.0im, 0.9806126260138638 + 0.11987118943503457im, 0.9924846526375096 + 0.14603379897907im]
Piny_new: [0.0, 0.9563891813906341, 1.7026607027504146]
Qiny_new: [0.0, -0.1942040398777555, 0.294704330103414]

Desbalances de potencias:
ΔPiny: [0.0, 0.015450476179754036, 0.002789380540566544]
ΔQiny: [0.0, -0.07926291214692108, -0.11040883769842258]

Desbalances de ángulos y tensiones (vector columna):
Δθ: [0.0022, 0.0023]
ΔV: [-0.0093, -0.0102]

Tensiones actualizadas (módulos y ángulos):

====Iteración Newton-Raphson: 3 ====


Potencias inyectadas calculadas con las tensiones actuales:
U: ComplexF64[1.0 + 0.0im, 0.9710821000700451 + 0.12092259395213048im, 0.982083925203057 + 0.1467622202985764im]
Piny_new: [0.0, 0.9716056456789028, 1.7052424968281716]
Qiny_new: [0.0, -0.27267651364818624, 0.1854105679147037]

Desbalances de potencias:
ΔPiny: [0.0, 0.00023401189148530843, 0.00020758646280949478]
ΔQiny: [0.0, -0.0007904383764903433, -0.0011150755097122655]

Desbalances de ángulos y tensiones (vector columna):
Δθ: [0.0, 0.0]
ΔV: [-0.0001, -0.0001]

Tensiones actualizadas (módulos y ángulos):

====Iteración Newton-Raphson: 4 ====


Potencias inyectadas calculadas con las tensiones actuales:
U: ComplexF64[1.0 + 0.0im, 0.9709813063556061 + 0.1209445788382369im, 0.9819727473944543 + 0.14678438760641999im]
Piny_new: [0.0, 0.9718396277179638, 1.7054500367286078]
Qiny_new: [0.0, -0.2734668648056819, 0.18429561736597005]

Desbalances de potencias:
ΔPiny: [0.0, 2.985242431030599e-8, 4.656237329037083e-8]
ΔQiny: [0.0, -8.72189946932167e-8, -1.249609786202477e-7]

¡Convergencia alcanzada!

****Resultados finales****

1. Tensiones finales:
Nodo 1: V = 1.0∠0.0°
Nodo 2: V = 0.9785∠7.0989°
Nodo 3: V = 0.9929∠8.5027°

2. Potencias generadas por el slack:
Pgen_slack: -2.6772896644465645 p.u.
Qgen_slack: 0.47045946249939696 p.u.

3. Pérdidas totales:
P_totales: 7.641480470610418e-8 p.u.
Q_totales: 0.874196069414914 p.u.

Violaciones de tensión: 0.0

Tensiones de la línea 1-2:

Corrientes de la línea 1-2:
I_1 = 1.2437∠-166.5068°
I_2 = 1.2437∠13.4932°

Potencias aparentes de la línea 1-2:
S_1 = -1.2093999999999998 + 0.29020000000000046im
S_2 = 1.2093999999999998 - 0.13551356000000045im

Violación de flujo en la línea 1-2: 0.0

Tensiones de la línea 1-3:

Corrientes de la línea 1-3:
I_1 = 1.4788∠-172.9970°
I_3 = 1.4788∠7.0030°

Potencias aparentes de la línea 1-3:
S_1 = -1.4677999999999998 + 0.18029999999999902im
S_3 = 1.4677999999999995 + 0.038394493000000945im

Violación de flujo en la línea 1-3: 0.0

Tensiones de la línea 2-3:

Corrientes de la línea 2-3:
I_2 = 4.0636∠66.7729°
I_3 = 2.6276∠28.2702°

Potencias aparentes de la línea 2-3:
S_2 = 2.12178752644709 - 3.4316560365096977im
S_3 = 2.3975209308812 - 0.9285104293508im

Violación de flujo en la línea 2-3: 0.0

Pérdidas totales:
P_totales = 4.51930845732829
Q_totales = -3.986785532860498

Información de Generadores:
----------------------------

Generador 1:
Estado u: 0.0
P inicial: -2.68 MW
Q inicial: 0.47 MVAr
Límites P: [-500, 500] MW
Límites Q: [-100, 100] MVAr
P ajustada: 0.0 MW
Q ajustada: 0.0 MVAr
Estado: Apagado

Generador 2:
Estado u: 0.3906
P inicial: 0.97 MW
Q inicial: -0.27 MVAr
Límites P: [10, 250] MW
Límites Q: [-100, 100] MVAr
P ajustada: 0.97 MW
Q ajustada: -0.27 MVAr
Estado: Encendido

Generador 3:
Estado u: 0.5737
P inicial: 2.71 MW
Q inicial: 0.18 MVAr
Límites P: [10, 450] MW
Límites Q: [-100, 100] MVAr
P ajustada: 2.71 MW
Q ajustada: 0.18 MVAr
Estado: Encendido
fitValue: 164.42769389166068

Actualizando partícula 4

Comprobación de potencias generadas y demandadas:
Pd: [0.0, 0.0, 1.0]
Qd: [0.0, 0.0, 0.0]
Pgen: [0.0, 2.1778857274254046, 0.0]
Qgen: [0.0, 0.7315714395211705, 0.0]

Potencias activas inyectadas reales:
Piny: [0.0, 2.1778857274254046, -1.0]

Potencias reactivas inyectadas:
Qiny: [0.0, 0.7315714395211705, 0.0]

====Iteración Newton-Raphson: 1 ====


Potencias inyectadas calculadas con las tensiones actuales:
U: ComplexF64[1.0 + 0.0im, 1.0 + 0.0im, 1.0 + 0.0im]
Piny_new: [0.0, 2.449293598294706e-15, 2.449293598294706e-15]
Qiny_new: [0.0, 0.0, 0.0]

Desbalances de potencias:
ΔPiny: [0.0, 2.177885727425402, -1.0000000000000024]
ΔQiny: [0.0, 0.7315714395211705, 0.0]

Desbalances de ángulos y tensiones (vector columna):
Δθ: [0.1119, 0.0059]
ΔV: [0.0488, 0.0244]

Tensiones actualizadas (módulos y ángulos):

====Iteración Newton-Raphson: 2 ====


Potencias inyectadas calculadas con las tensiones actuales:
U: ComplexF64[1.0 + 0.0im, 1.0422169196713609 + 0.11707007845587857im, 1.0243677063827539 + 0.006074084340298647im]
Piny_new: [0.0, 2.3066237273880623, -1.0751820994262837]
Qiny_new: [0.0, 0.8930165307917304, 0.06040029290802742]

Desbalances de potencias:
ΔPiny: [0.0, -0.12873799996265767, 0.07518209942628373]
ΔQiny: [0.0, -0.16144509127055984, -0.06040029290802742]

Desbalances de ángulos y tensiones (vector columna):
Δθ: [-0.0044, 0.0004]
ΔV: [-0.0107, -0.008]

Tensiones actualizadas (módulos y ángulos):

====Iteración Newton-Raphson: 3 ====


Potencias inyectadas calculadas con las tensiones actuales:
U: ComplexF64[1.0 + 0.0im, 1.032040130307681 + 0.11138258169330377im, 1.0163641101884946 + 0.006448015822288799im]
Piny_new: [0.0, 2.17933229137055, -1.0010263162146187]
Qiny_new: [0.0, 0.7333894446456999, 0.0006430721802530463]

Desbalances de potencias:
ΔPiny: [0.0, -0.0014465639451453072, 0.0010263162146186833]
ΔQiny: [0.0, -0.0018180051245293427, -0.0006430721802530463]

Desbalances de ángulos y tensiones (vector columna):
Δθ: [-0.0, 0.0]
ΔV: [-0.0001, -0.0001]

Tensiones actualizadas (módulos y ángulos):

====Iteración Newton-Raphson: 4 ====


Potencias inyectadas calculadas con las tensiones actuales:
U: ComplexF64[1.0 + 0.0im, 1.031923396141309 + 0.11132392795870576im, 1.016274652459663 + 0.006464648529057364im]
Piny_new: [0.0, 2.1778859209041936, -1.0000001560265577]
Qiny_new: [0.0, 0.7315716789299576, 8.519932315328197e-8]

Desbalances de potencias:
ΔPiny: [0.0, -1.9347878899012017e-7, 1.5602655767388285e-7]
ΔQiny: [0.0, -2.394087870172257e-7, -8.519932315328197e-8]

¡Convergencia alcanzada!

****Resultados finales****

1. Tensiones finales:
Nodo 1: V = 1.0∠0.0°
Nodo 2: V = 1.0379∠6.1593°
Nodo 3: V = 1.0163∠0.3667°

2. Potencias generadas por el slack:
Pgen_slack: -1.1778857648776282 p.u.
Qgen_slack: -0.48198048600972143 p.u.

3. Pérdidas totales:
P_totales: -3.7452223544676144e-8 p.u.
Q_totales: 0.7660189339677558 p.u.

Violaciones de tensión: 0.0

Tensiones de la línea 1-2:

Corrientes de la línea 1-2:
I_1 = 1.1581∠164.0002°
I_2 = 1.1581∠-15.9998°

Potencias aparentes de la línea 1-2:
S_1 = -1.1131999999999997 - 0.3191999999999986im
S_2 = 1.1131999999999997 + 0.4533102879999985im

Violación de flujo en la línea 1-2: 0.0

Tensiones de la línea 1-3:

Corrientes de la línea 1-3:
I_1 = 0.1751∠111.6555°
I_3 = 0.1751∠-68.3445°

Potencias aparentes de la línea 1-3:
S_1 = -0.06459999999999999 - 0.16269999999999918im
S_3 = 0.0646 + 0.16576444499999918im

Violación de flujo en la línea 1-3: 0.0

Tensiones de la línea 2-3:

Corrientes de la línea 2-3:
I_2 = 3.9539∠77.2835°
I_3 = 3.9268∠14.7827°

Potencias aparentes de la línea 2-3:
S_2 = 0.9094296773728502 - 3.9140199580904964im
S_3 = 4.029567738566239 - 0.6112605424801573im

Violación de flujo en la línea 2-3: 0.0

Pérdidas totales:
P_totales = 4.93899741593909
Q_totales = -4.388105767570654

Información de Generadores:
----------------------------

Generador 1:
Estado u: 1.0
P inicial: -1.18 MW
Q inicial: -0.48 MVAr
Límites P: [-500, 500] MW
Límites Q: [-100, 100] MVAr
P ajustada: -1.18 MW
Q ajustada: -0.48 MVAr
Estado: Encendido

Generador 2:
Estado u: 0.7926
P inicial: 2.18 MW
Q inicial: 0.73 MVAr
Límites P: [10, 250] MW
Límites Q: [-100, 100] MVAr
P ajustada: 2.18 MW
Q ajustada: 0.73 MVAr
Estado: Encendido

Generador 3:
Estado u: 0.0
P inicial: 0.0 MW
Q inicial: 0.0 MVAr
Límites P: [10, 450] MW
Límites Q: [-100, 100] MVAr
P ajustada: 0.0 MW
Q ajustada: 0.0 MVAr
Estado: Apagado
fitValue: 41.77885652520958

Actualizando partícula 5
fitValue: Inf

Mejor fitness actual: 31.087860847991813
Iteraciones sin mejora: 1

=========== Iteración 3 ==============

Actualizando partícula 1

Comprobación de potencias generadas y demandadas:
Pd: [0.0, 0.0, 1.0]
Qd: [0.0, 0.0, 0.0]
Pgen: [0.0, 2.2790424345353015, 0.0]
Qgen: [0.0, 0.8158686954460848, 0.0]

Potencias activas inyectadas reales:
Piny: [0.0, 2.2790424345353015, -1.0]

Potencias reactivas inyectadas:
Qiny: [0.0, 0.8158686954460848, 0.0]

====Iteración Newton-Raphson: 1 ====


Potencias inyectadas calculadas con las tensiones actuales:
U: ComplexF64[1.0 + 0.0im, 1.0 + 0.0im, 1.0 + 0.0im]
Piny_new: [0.0, 2.449293598294706e-15, 2.449293598294706e-15]
Qiny_new: [0.0, 0.0, 0.0]

Desbalances de potencias:
ΔPiny: [0.0, 2.279042434535299, -1.0000000000000024]
ΔQiny: [0.0, 0.8158686954460848, 0.0]

Desbalances de ángulos y tensiones (vector columna):
Δθ: [0.1186, 0.0093]
ΔV: [0.0544, 0.0272]

Tensiones actualizadas (módulos y ángulos):

====Iteración Newton-Raphson: 2 ====


Potencias inyectadas calculadas con las tensiones actuales:
U: ComplexF64[1.0 + 0.0im, 1.0469840689924117 + 0.12476080988501898im, 1.0271511889136866 + 0.00955423448030763im]
Piny_new: [0.0, 2.4290589279595074, -1.0859084843062368]
Qiny_new: [0.0, 0.9989480655089439, 0.06507582382083145]

Desbalances de potencias:
ΔPiny: [0.0, -0.15001649342420587, 0.08590848430623677]
ΔQiny: [0.0, -0.18307937006285913, -0.06507582382083145]

Desbalances de ángulos y tensiones (vector columna):
Δθ: [-0.0051, 0.0004]
ΔV: [-0.0119, -0.0087]

Tensiones actualizadas (módulos y ángulos):

====Iteración Newton-Raphson: 3 ====


Potencias inyectadas calculadas con las tensiones actuales:
U: ComplexF64[1.0 + 0.0im, 1.035806188928389 + 0.11807575251849067im, 1.018418495250292 + 0.0098835225924981im]
Piny_new: [0.0, 2.28088868854195, -1.0012959374320567]
Qiny_new: [0.0, 0.8181531511490133, 0.0007815105608666911]

Desbalances de potencias:
ΔPiny: [0.0, -0.0018462540066486177, 0.001295937432056693]
ΔQiny: [0.0, -0.0022844557029285673, -0.0007815105608666911]

Desbalances de ángulos y tensiones (vector columna):
Δθ: [-0.0001, 0.0]
ΔV: [-0.0002, -0.0001]

Tensiones actualizadas (módulos y ángulos):

====Iteración Newton-Raphson: 4 ====


Potencias inyectadas calculadas con las tensiones actuales:
U: ComplexF64[1.0 + 0.0im, 1.0356627662858047 + 0.11800042144202022im, 1.0183088891640566 + 0.009903827963648113im]
Piny_new: [0.0, 2.279042736558842, -1.0000002425021526]
Qiny_new: [0.0, 0.8158690661804331, 1.29950090888149e-7]

Desbalances de potencias:
ΔPiny: [0.0, -3.02023540399432e-7, 2.4250215258092567e-7]
ΔQiny: [0.0, -3.707343483316805e-7, -1.29950090888149e-7]

¡Convergencia alcanzada!

****Resultados finales****

1. Tensiones finales:
Nodo 1: V = 1.0∠0.0°
Nodo 2: V = 1.0424∠6.4973°
Nodo 3: V = 1.0184∠0.5558°

2. Potencias generadas por el slack:
Pgen_slack: -1.2790424940566818 p.u.
Qgen_slack: -0.5397165544986144 p.u.

3. Pérdidas totales:
P_totales: -5.952138026898979e-8 p.u.
Q_totales: 0.7946776807269046 p.u.

Violaciones de tensión: 0.0

Tensiones de la línea 1-2:

Corrientes de la línea 1-2:
I_1 = 1.2327∠163.1850°
I_2 = 1.2327∠-16.8150°

Potencias aparentes de la línea 1-2:
S_1 = -1.1799999999999997 - 0.35660000000000025im
S_2 = 1.1799999999999997 + 0.5085563560000003im

Violación de flujo en la línea 1-2: 0.0

Tensiones de la línea 1-3:

Corrientes de la línea 1-3:
I_1 = 0.2082∠118.3996°
I_3 = 0.2082∠-61.6004°

Potencias aparentes de la línea 1-3:
S_1 = -0.09899999999999999 - 0.1830999999999996im
S_3 = 0.099 + 0.1874326609999996im

Violación de flujo en la línea 1-3: 0.0

Tensiones de la línea 2-3:

Corrientes de la línea 2-3:
I_2 = 3.9753∠77.9580°
I_3 = 3.9639∠14.7081°

Potencias aparentes de la línea 2-3:
S_2 = 0.8830444474969305 - 3.950844987676898im
S_3 = 4.08949244386188 - 0.5898909503149172im

Violación de flujo en la línea 2-3: 0.0

Pérdidas totales:
P_totales = 4.97253689135881
Q_totales = -4.384446920991816

Información de Generadores:
----------------------------

Generador 1:
Estado u: 1.0
P inicial: -1.28 MW
Q inicial: -0.54 MVAr
Límites P: [-500, 500] MW
Límites Q: [-100, 100] MVAr
P ajustada: -1.28 MW
Q ajustada: -0.54 MVAr
Estado: Encendido

Generador 2:
Estado u: 0.8263
P inicial: 2.28 MW
Q inicial: 0.82 MVAr
Límites P: [10, 250] MW
Límites Q: [-100, 100] MVAr
P ajustada: 2.28 MW
Q ajustada: 0.82 MVAr
Estado: Encendido

Generador 3:
Estado u: 0.0
P inicial: 0.0 MW
Q inicial: 0.0 MVAr
Límites P: [10, 450] MW
Límites Q: [-100, 100] MVAr
P ajustada: 0.0 MW
Q ajustada: 0.0 MVAr
Estado: Apagado
fitValue: 42.79042315492541

Actualizando partícula 2

Comprobación de potencias generadas y demandadas:
Pd: [0.0, 0.0, 1.0]
Qd: [0.0, 0.0, 0.0]
Pgen: [0.0, 0.0, 0.743106660976593]
Qgen: [0.0, 0.0, -0.707678790465185]

Potencias activas inyectadas reales:
Piny: [0.0, 0.0, -0.25689333902340705]

Potencias reactivas inyectadas:
Qiny: [0.0, 0.0, -0.707678790465185]

====Iteración Newton-Raphson: 1 ====


Potencias inyectadas calculadas con las tensiones actuales:
U: ComplexF64[1.0 + 0.0im, 1.0 + 0.0im, 1.0 + 0.0im]
Piny_new: [0.0, 2.449293598294706e-15, 2.449293598294706e-15]
Qiny_new: [0.0, 0.0, 0.0]

Desbalances de potencias:
ΔPiny: [0.0, -2.449293598294706e-15, -0.2568933390234095]
ΔQiny: [0.0, 0.0, -0.707678790465185]

Desbalances de ángulos y tensiones (vector columna):
Δθ: [-0.0086, -0.0171]
ΔV: [-0.0236, -0.0472]

Tensiones actualizadas (módulos y ángulos):

====Iteración Newton-Raphson: 2 ====


Potencias inyectadas calculadas con las tensiones actuales:
U: ComplexF64[1.0 + 0.0im, 0.9763749086302402 - 0.008361011377168256im, 0.95268168255067 - 0.01631743393690949im]
Piny_new: [0.0, -0.003944606945639772, -0.2428398461951331]
Qiny_new: [0.0, 0.0006990779277102206, -0.6725530971985453]

Desbalances de potencias:
ΔPiny: [0.0, 0.003944606945639772, -0.01405349282827395]
ΔQiny: [0.0, -0.0006990779277102206, -0.035125693266639724]

Desbalances de ángulos y tensiones (vector columna):
Δθ: [-0.0002, -0.0009]
ΔV: [-0.0014, -0.0026]

Tensiones actualizadas (módulos y ángulos):

====Iteración Newton-Raphson: 3 ====


Potencias inyectadas calculadas con las tensiones actuales:
U: ComplexF64[1.0 + 0.0im, 0.9750198703665426 - 0.008563006562414356im, 0.9500394356076375 - 0.017123670039408043im]
Piny_new: [0.0, -2.2819420517393164e-5, -0.2568439465977009]
Qiny_new: [0.0, 3.1756722993706717e-6, -0.7075709448522579]

Desbalances de potencias:
ΔPiny: [0.0, 2.2819420517393164e-5, -4.939242570617397e-5]
ΔQiny: [0.0, -3.1756722993706717e-6, -0.00010784561292709327]

Desbalances de ángulos y tensiones (vector columna):
Δθ: [-0.0, -0.0]
ΔV: [-0.0, -0.0]

Tensiones actualizadas (módulos y ángulos):

====Iteración Newton-Raphson: 4 ====


Potencias inyectadas calculadas con las tensiones actuales:
U: ComplexF64[1.0 + 0.0im, 0.9750156142053223 - 0.00856311130358341im, 0.9500312284062467 - 0.01712622257488537im]
Piny_new: [0.0, -3.143708736916489e-10, -0.2568933384703122]
Qiny_new: [0.0, 4.564624672039757e-11, -0.7076787894158594]

Desbalances de potencias:
ΔPiny: [0.0, 3.143708736916489e-10, -5.530948476994979e-10]
ΔQiny: [0.0, -4.564624672039757e-11, -1.0493256263899298e-9]

¡Convergencia alcanzada!

****Resultados finales****

1. Tensiones finales:
Nodo 1: V = 1.0∠0.0°
Nodo 2: V = 0.9751∠-0.5042°
Nodo 3: V = 0.9502∠-1.0313°

2. Potencias generadas por el slack:
Pgen_slack: 0.25689333878469006 p.u.
Qgen_slack: 0.74953157388431 p.u.

3. Pérdidas totales:
P_totales: -2.38716990619281e-10 p.u.
Q_totales: 0.4932791046425083 p.u.

Violaciones de tensión: 0.0

Tensiones de la línea 1-2:

Corrientes de la línea 1-2:
I_1 = 0.2641∠-71.0847°
I_2 = 0.2641∠108.9153°

Potencias aparentes de la línea 1-2:
S_1 = 0.08559999999999998 + 0.24980000000000047im
S_2 = -0.08559999999999998 - 0.24282726000000043im

Violación de flujo en la línea 1-2: 0.0

Tensiones de la línea 1-3:

Corrientes de la línea 1-3:
I_1 = 0.5282∠-71.0780°
I_3 = 0.5282∠108.9220°

Potencias aparentes de la línea 1-3:
S_1 = 0.17129999999999995 + 0.4996999999999989im
S_3 = -0.17129999999999992 - 0.471795621999999im

Violación de flujo en la línea 1-3: 0.0

Tensiones de la línea 2-3:

Corrientes de la línea 2-3:
I_2 = 4.0796∠63.9393°
I_3 = 2.8268∠10.8399°

Potencias aparentes de la línea 2-3:
S_2 = 1.6399196837671401 - 3.512388694776197im
S_3 = 2.7024125572302 - 0.542099861141798im

Violación de flujo en la línea 2-3: 0.0

Pérdidas totales:
P_totales = 4.34233224099734
Q_totales = -4.0196114379179955

Información de Generadores:
----------------------------

Generador 1:
Estado u: 1.0
P inicial: 0.26 MW
Q inicial: 0.75 MVAr
Límites P: [-500, 500] MW
Límites Q: [-100, 100] MVAr
P ajustada: 0.26 MW
Q ajustada: 0.75 MVAr
Estado: Encendido

Generador 2:
Estado u: 0.0
P inicial: 0.0 MW
Q inicial: 0.0 MVAr
Límites P: [10, 250] MW
Límites Q: [-100, 100] MVAr
P ajustada: 0.0 MW
Q ajustada: 0.0 MVAr
Estado: Apagado

Generador 3:
Estado u: 0.2169
P inicial: 0.74 MW
Q inicial: -0.71 MVAr
Límites P: [10, 450] MW
Límites Q: [-100, 100] MVAr
P ajustada: 0.74 MW
Q ajustada: -0.71 MVAr
Estado: Encendido
fitValue: 42.29319982452345

Actualizando partícula 3

Comprobación de potencias generadas y demandadas:
Pd: [0.0, 0.0, 1.0]
Qd: [0.0, 0.0, 0.0]
Pgen: [0.0, 0.1400556169770843, 4.2813924045772405]
Qgen: [0.0, -0.9666203191857631, 0.9006329111714728]

Potencias activas inyectadas reales:
Piny: [0.0, 0.1400556169770843, 3.2813924045772405]

Potencias reactivas inyectadas:
Qiny: [0.0, -0.9666203191857631, 0.9006329111714728]

====Iteración Newton-Raphson: 1 ====


Potencias inyectadas calculadas con las tensiones actuales:
U: ComplexF64[1.0 + 0.0im, 1.0 + 0.0im, 1.0 + 0.0im]
Piny_new: [0.0, 2.449293598294706e-15, 2.449293598294706e-15]
Qiny_new: [0.0, 0.0, 0.0]

Desbalances de potencias:
ΔPiny: [0.0, 0.14005561697708185, 3.281392404577238]
ΔQiny: [0.0, -0.9666203191857631, 0.9006329111714728]

Desbalances de ángulos y tensiones (vector columna):
Δθ: [0.1187, 0.2234]
ΔV: [-0.0344, 0.0278]

Tensiones actualizadas (módulos y ángulos):

====Iteración Newton-Raphson: 2 ====


Potencias inyectadas calculadas con las tensiones actuales:
U: ComplexF64[1.0 + 0.0im, 0.958783446224768 + 0.11436145430214667im, 1.0022735971801537 + 0.22773824170493687im]
Piny_new: [0.0, 0.10631264265284648, 3.3146843174179934]
Qiny_new: [0.0, -0.8110277834135216, 1.2355273341237598]

Desbalances de potencias:
ΔPiny: [0.0, 0.03374297432423781, -0.033291912840752946]
ΔQiny: [0.0, -0.15559253577224152, -0.334894422952287]

Desbalances de ángulos y tensiones (vector columna):
Δθ: [0.0033, 0.0055]
ΔV: [-0.0226, -0.0267]

Tensiones actualizadas (módulos y ángulos):

====Iteración Newton-Raphson: 3 ====


Potencias inyectadas calculadas con las tensiones actuales:
U: ComplexF64[1.0 + 0.0im, 0.9359376491104597 + 0.11473842779841319im, 0.974995564445523 + 0.2271857547071646im]
Piny_new: [0.0, 0.1397618480131001, 3.2794799770426817]
Qiny_new: [0.0, -0.962512622318931, 0.908618784215285]

Desbalances de potencias:
ΔPiny: [0.0, 0.00029376896398419783, 0.0019124275345587805]
ΔQiny: [0.0, -0.0041076968668321, -0.007985873043812153]

Desbalances de ángulos y tensiones (vector columna):
Δθ: [0.0001, 0.0003]
ΔV: [-0.0006, -0.0007]

Tensiones actualizadas (módulos y ángulos):

====Iteración Newton-Raphson: 4 ====


Potencias inyectadas calculadas con las tensiones actuales:
U: ComplexF64[1.0 + 0.0im, 0.9352928888507195 + 0.1147999354464933im, 0.9742117275796065 + 0.22734452453454104im]
Piny_new: [0.0, 0.14005661767544833, 3.2813879821349]
Qiny_new: [0.0, -0.9666170040509211, 0.9006388061849004]

Desbalances de potencias:
ΔPiny: [0.0, -1.0006983640342693e-6, 4.422442340334953e-6]
ΔQiny: [0.0, -3.315134841974654e-6, -5.895013427625884e-6]

¡Convergencia alcanzada!

****Resultados finales****

1. Tensiones finales:
Nodo 1: V = 1.0∠0.0°
Nodo 2: V = 0.9423∠6.9958°
Nodo 3: V = 1.0004∠13.1379°

2. Potencias generadas por el slack:
Pgen_slack: -3.4214445998103407 p.u.
Qgen_slack: 0.9049538356967428 p.u.

3. Pérdidas totales:
P_totales: 3.421743984155512e-6 p.u.
Q_totales: 1.3393534391771915 p.u.

Violaciones de tensión: 0.0

Tensiones de la línea 1-2:

Corrientes de la línea 1-2:
I_1 = 1.3178∠-150.5911°
I_2 = 1.3178∠29.4089°

Potencias aparentes de la línea 1-2:
S_1 = -1.1479999999999997 + 0.6471im
S_2 = 1.1479999999999997 - 0.473435759im

Violación de flujo en la línea 1-2: 0.0

Tensiones de la línea 1-3:

Corrientes de la línea 1-3:
I_1 = 2.288∠-173.5279°
I_3 = 2.288∠6.4721°

Potencias aparentes de la línea 1-3:
S_1 = -2.2733999999999996 + 0.25789999999999935im
S_3 = 2.2733999999999996 + 0.26558599700000046im

Violación de flujo en la línea 1-3: 0.0

Tensiones de la línea 2-3:

Corrientes de la línea 2-3:
I_2 = 4.183∠58.8723°
I_3 = 2.004∠47.4960°

Potencias aparentes de la línea 2-3:
S_2 = 2.9206642306066093 - 2.9967782803112977im
S_3 = 1.43599973705043 - 1.226388150379369im

Violación de flujo en la línea 2-3: 0.0

Pérdidas totales:
P_totales = 4.356663967657039
Q_totales = -3.5260161926906664

Información de Generadores:
----------------------------

Generador 1:
Estado u: 1.0
P inicial: -3.42 MW
Q inicial: 0.9 MVAr
Límites P: [-500, 500] MW
Límites Q: [-100, 100] MVAr
P ajustada: -3.42 MW
Q ajustada: 0.9 MVAr
Estado: Encendido

Generador 2:
Estado u: 0.1134
P inicial: 0.14 MW
Q inicial: -0.97 MVAr
Límites P: [10, 250] MW
Límites Q: [-100, 100] MVAr
P ajustada: 0.14 MW
Q ajustada: -0.97 MVAr
Estado: Encendido

Generador 3:
Estado u: 0.8603
P inicial: 4.28 MW
Q inicial: 0.9 MVAr
Límites P: [10, 450] MW
Límites Q: [-100, 100] MVAr
P ajustada: 4.28 MW
Q ajustada: 0.9 MVAr
Estado: Encendido
fitValue: 149.84239674196772

Actualizando partícula 4

Comprobación de potencias generadas y demandadas:
Pd: [0.0, 0.0, 1.0]
Qd: [0.0, 0.0, 0.0]
Pgen: [0.0, 1.0312462173555987, 0.0]
Qgen: [0.0, -0.22396148553700115, 0.0]

Potencias activas inyectadas reales:
Piny: [0.0, 1.0312462173555987, -1.0]

Potencias reactivas inyectadas:
Qiny: [0.0, -0.22396148553700115, 0.0]

====Iteración Newton-Raphson: 1 ====


Potencias inyectadas calculadas con las tensiones actuales:
U: ComplexF64[1.0 + 0.0im, 1.0 + 0.0im, 1.0 + 0.0im]
Piny_new: [0.0, 2.449293598294706e-15, 2.449293598294706e-15]
Qiny_new: [0.0, 0.0, 0.0]

Desbalances de potencias:
ΔPiny: [0.0, 1.0312462173555963, -1.0000000000000024]
ΔQiny: [0.0, -0.22396148553700115, 0.0]

Desbalances de ángulos y tensiones (vector columna):
Δθ: [0.0354, -0.0323]
ΔV: [-0.0149, -0.0075]

Tensiones actualizadas (módulos y ángulos):

====Iteración Newton-Raphson: 2 ====


Potencias inyectadas calculadas con las tensiones actuales:
U: ComplexF64[1.0 + 0.0im, 0.9844515016606132 + 0.03488032737363425im, 0.99201717447635 - 0.03204515224816307im]
Piny_new: [0.0, 1.0102910943128434, -0.9819393430581271]
Qiny_new: [0.0, -0.19203760626763783, 0.027577063157401827]

Desbalances de potencias:
ΔPiny: [0.0, 0.020955123042755375, -0.018060656941872866]
ΔQiny: [0.0, -0.031923879269363326, -0.027577063157401827]

Desbalances de ángulos y tensiones (vector columna):
Δθ: [0.001, -0.0007]
ΔV: [-0.0033, -0.0031]

Tensiones actualizadas (módulos y ángulos):

====Iteración Newton-Raphson: 3 ====


Potencias inyectadas calculadas con las tensiones actuales:
U: ComplexF64[1.0 + 0.0im, 0.9811542822221199 + 0.035748631518641584im, 0.988916065386959 - 0.03262517518912404im]
Piny_new: [0.0, 1.0311135788808101, -0.9998790155856301]
Qiny_new: [0.0, -0.22383828812199869, 9.780539533667636e-5]

Desbalances de potencias:
ΔPiny: [0.0, 0.00013263847478861557, -0.00012098441436991791]
ΔQiny: [0.0, -0.0001231974150024684, -9.780539533667636e-5]

Desbalances de ángulos y tensiones (vector columna):
Δθ: [0.0, -0.0]
ΔV: [-0.0, -0.0]

Tensiones actualizadas (módulos y ángulos):

====Iteración Newton-Raphson: 4 ====


Potencias inyectadas calculadas con las tensiones actuales:
U: ComplexF64[1.0 + 0.0im, 0.9811413799698545 + 0.03575376643976198im, 0.988904230927685 - 0.03262914472542676im]
Piny_new: [0.0, 1.031246214267844, -0.9999999971244872]
Qiny_new: [0.0, -0.22396148333069926, 1.6591805140295612e-9]

Desbalances de potencias:
ΔPiny: [0.0, 3.0877547185781395e-9, -2.875512827849036e-9]
ΔQiny: [0.0, -2.2063018911833154e-9, -1.6591805140295612e-9]

¡Convergencia alcanzada!

****Resultados finales****

1. Tensiones finales:
Nodo 1: V = 1.0∠0.0°
Nodo 2: V = 0.9818∠2.0856°
Nodo 3: V = 0.9894∠-1.8908°

2. Potencias generadas por el slack:
Pgen_slack: -0.031246217143349853 p.u.
Qgen_slack: 0.2995438910246051 p.u.

3. Pérdidas totales:
P_totales: 2.1224888513415863e-10 p.u.
Q_totales: 0.5650805250036984 p.u.

Violaciones de tensión: 0.0

Tensiones de la línea 1-2:

Corrientes de la línea 1-2:
I_1 = 0.4042∠-152.1860°
I_2 = 0.4042∠27.8140°

Potencias aparentes de la línea 1-2:
S_1 = -0.35749999999999993 + 0.1885999999999992im
S_2 = 0.3574999999999999 - 0.17226237899999924im

Violación de flujo en la línea 1-2: 0.0

Tensiones de la línea 1-3:

Corrientes de la línea 1-3:
I_1 = 0.3447∠-18.7872°
I_3 = 0.3447∠161.2128°

Potencias aparentes de la línea 1-3:
S_1 = 0.3262999999999999 + 0.11100000000000065im
S_3 = -0.3262999999999999 - 0.09912073100000064im

Violación de flujo en la línea 1-3: 0.0

Tensiones de la línea 2-3:

Corrientes de la línea 2-3:
I_2 = 3.6944∠68.9877°
I_3 = 3.4966∠16.3809°

Potencias aparentes de la línea 2-3:
S_2 = 1.1974618926839702 - 3.4536961527200987im
S_3 = 3.3266575794278297 - 0.8475942073659666im

Violación de flujo en la línea 2-3: 0.0

Pérdidas totales:
P_totales = 4.5241194721118
Q_totales = -4.273073470086065

Información de Generadores:
----------------------------

Generador 1:
Estado u: 0.9538
P inicial: -0.03 MW
Q inicial: 0.3 MVAr
Límites P: [-500, 500] MW
Límites Q: [-100, 100] MVAr
P ajustada: -0.03 MW
Q ajustada: 0.3 MVAr
Estado: Encendido

Generador 2:
Estado u: 0.4104
P inicial: 1.03 MW
Q inicial: -0.22 MVAr
Límites P: [10, 250] MW
Límites Q: [-100, 100] MVAr
P ajustada: 1.03 MW
Q ajustada: -0.22 MVAr
Estado: Encendido

Generador 3:
Estado u: 0.0
P inicial: 0.0 MW
Q inicial: 0.0 MVAr
Límites P: [10, 450] MW
Límites Q: [-100, 100] MVAr
P ajustada: 0.0 MW
Q ajustada: 0.0 MVAr
Estado: Apagado
fitValue: 30.312462177800967

Actualizando partícula 5

Comprobación de potencias generadas y demandadas:
Pd: [0.0, 0.0, 1.0]
Qd: [0.0, 0.0, 0.0]
Pgen: [0.0, 1.4188624014286098, 0.0]
Qgen: [0.0, 0.09905200119050804, 0.0]

Potencias activas inyectadas reales:
Piny: [0.0, 1.4188624014286098, -1.0]

Potencias reactivas inyectadas:
Qiny: [0.0, 0.09905200119050804, 0.0]

====Iteración Newton-Raphson: 1 ====


Potencias inyectadas calculadas con las tensiones actuales:
U: ComplexF64[1.0 + 0.0im, 1.0 + 0.0im, 1.0 + 0.0im]
Piny_new: [0.0, 2.449293598294706e-15, 2.449293598294706e-15]
Qiny_new: [0.0, 0.0, 0.0]

Desbalances de potencias:
ΔPiny: [0.0, 1.4188624014286073, -1.0000000000000024]
ΔQiny: [0.0, 0.09905200119050804, 0.0]

Desbalances de ángulos y tensiones (vector columna):
Δθ: [0.0613, -0.0194]
ΔV: [0.0066, 0.0033]

Tensiones actualizadas (módulos y ángulos):

====Iteración Newton-Raphson: 2 ====


Potencias inyectadas calculadas con las tensiones actuales:
U: ComplexF64[1.0 + 0.0im, 1.0047154273187409 + 0.061623448238913886im, 1.003113497052214 - 0.019433996526144543im]
Piny_new: [0.0, 1.4296439702654329, -1.0077494531377358]
Qiny_new: [0.0, 0.1513963525051991, 0.034692233653790115]

Desbalances de potencias:
ΔPiny: [0.0, -0.01078156883682313, 0.0077494531377357845]
ΔQiny: [0.0, -0.05234435131469105, -0.034692233653790115]

Desbalances de ángulos y tensiones (vector columna):
Δθ: [-0.0001, -0.0]
ΔV: [-0.0046, -0.004]

Tensiones actualizadas (módulos y ángulos):

====Iteración Newton-Raphson: 3 ====


Potencias inyectadas calculadas con las tensiones actuales:
U: ComplexF64[1.0 + 0.0im, 1.0001781131306826 + 0.06127505991686926im, 0.9991251680687878 - 0.019388376547243638im]
Piny_new: [0.0, 1.4188834432642583, -1.0000166095679979]
Qiny_new: [0.0, 0.09928567330460918, 0.0001375171266146]

Desbalances de potencias:
ΔPiny: [0.0, -2.1041835648549778e-5, 1.660956799787172e-5]
ΔQiny: [0.0, -0.00023367211410113553, -0.0001375171266146]

Desbalances de ángulos y tensiones (vector columna):
Δθ: [0.0, -0.0]
ΔV: [-0.0, -0.0]

Tensiones actualizadas (módulos y ángulos):

====Iteración Newton-Raphson: 4 ====


Potencias inyectadas calculadas con las tensiones actuales:
U: ComplexF64[1.0 + 0.0im, 1.0001580175477842 + 0.06127468667165425im, 0.999108220808807 - 0.019388446539182494im]
Piny_new: [0.0, 1.4188624010674808, -0.9999999997427576]
Qiny_new: [0.0, 0.09905200582770209, 2.3198658601819023e-9]

Desbalances de potencias:
ΔPiny: [0.0, 3.611289045579724e-10, -2.572424495639325e-10]
ΔQiny: [0.0, -4.637194045420401e-9, -2.3198658601819023e-9]

¡Convergencia alcanzada!

****Resultados finales****

1. Tensiones finales:
Nodo 1: V = 1.0∠0.0°
Nodo 2: V = 1.002∠3.5065°
Nodo 3: V = 0.9993∠-1.1115°

2. Potencias generadas por el slack:
Pgen_slack: -0.4188624013247158 p.u.
Qgen_slack: 0.007337616434085703 p.u.

3. Pérdidas totales:
P_totales: 1.0389394899945614e-10 p.u.
Q_totales: 0.6056861919980651 p.u.

Violaciones de tensión: 0.0

Tensiones de la línea 1-2:

Corrientes de la línea 1-2:
I_1 = 0.6127∠179.8504°
I_2 = 0.6127∠-0.1496°

Potencias aparentes de la línea 1-2:
S_1 = -0.6126999999999999 - 0.0015999999999998238im
S_2 = 0.6126999999999998 + 0.03914038499999981im

Violación de flujo en la línea 1-2: 0.0

Tensiones de la línea 1-3:

Corrientes de la línea 1-3:
I_1 = 0.1941∠-2.6280°
I_3 = 0.1941∠177.3720°

Potencias aparentes de la línea 1-3:
S_1 = 0.1939 + 0.008899999999998798im
S_3 = -0.1939 - 0.005132357999998798im

Violación de flujo en la línea 1-3: 0.0

Tensiones de la línea 2-3:

Corrientes de la línea 2-3:
I_2 = 3.7856∠71.9437°
I_3 = 3.6441∠15.6652°

Potencias aparentes de la línea 2-3:
S_2 = 1.1025322744154602 - 3.6187583382817974im
S_3 = 3.5695986971635496 - 0.7691418715894491im

Violación de flujo en la línea 2-3: 0.0

Pérdidas totales:
P_totales = 4.67213097157901
Q_totales = -4.346592182871246

Información de Generadores:
----------------------------

Generador 1:
Estado u: 0.6217
P inicial: -0.42 MW
Q inicial: 0.01 MVAr
Límites P: [-500, 500] MW
Límites Q: [-100, 100] MVAr
P ajustada: -0.42 MW
Q ajustada: 0.01 MVAr
Estado: Encendido

Generador 2:
Estado u: 0.5396
P inicial: 1.42 MW
Q inicial: 0.1 MVAr
Límites P: [10, 250] MW
Límites Q: [-100, 100] MVAr
P ajustada: 1.42 MW
Q ajustada: 0.1 MVAr
Estado: Encendido

Generador 3:
Estado u: 0.0
P inicial: 0.0 MW
Q inicial: 0.0 MVAr
Límites P: [10, 450] MW
Límites Q: [-100, 100] MVAr
P ajustada: 0.0 MW
Q ajustada: 0.0 MVAr
Estado: Apagado
fitValue: 34.18862401636398

Mejora encontrada: 0.775398670190846

Mejor fitness actual: 30.312462177800967
Iteraciones sin mejora: 0

=========== Iteración 4 ==============

Actualizando partícula 1

Comprobación de potencias generadas y demandadas:
Pd: [0.0, 0.0, 1.0]
Qd: [0.0, 0.0, 0.0]
Pgen: [0.0, 0.5626701402691381, 0.0]
Qgen: [0.0, -0.6144415497757183, 0.0]

Potencias activas inyectadas reales:
Piny: [0.0, 0.5626701402691381, -1.0]

Potencias reactivas inyectadas:
Qiny: [0.0, -0.6144415497757183, 0.0]

====Iteración Newton-Raphson: 1 ====


Potencias inyectadas calculadas con las tensiones actuales:
U: ComplexF64[1.0 + 0.0im, 1.0 + 0.0im, 1.0 + 0.0im]
Piny_new: [0.0, 2.449293598294706e-15, 2.449293598294706e-15]
Qiny_new: [0.0, 0.0, 0.0]

Desbalances de potencias:
ΔPiny: [0.0, 0.5626701402691356, -1.0000000000000024]
ΔQiny: [0.0, -0.6144415497757183, 0.0]

Desbalances de ángulos y tensiones (vector columna):
Δθ: [0.0042, -0.0479]
ΔV: [-0.041, -0.0205]

Tensiones actualizadas (módulos y ángulos):

====Iteración Newton-Raphson: 2 ====


Potencias inyectadas calculadas con las tensiones actuales:
U: ComplexF64[1.0 + 0.0im, 0.9590288596642431 + 0.004006854858082662im, 0.978394605441475 - 0.04691175960443539im]
Piny_new: [0.0, 0.5291687135430259, -0.95821776100655]
Qiny_new: [0.0, -0.5764473670105121, 0.023981347045400378]

Desbalances de potencias:
ΔPiny: [0.0, 0.03350142672611223, -0.041782238993450016]
ΔQiny: [0.0, -0.037994182765206164, -0.023981347045400378]

Desbalances de ángulos y tensiones (vector columna):
Δθ: [0.001, -0.002]
ΔV: [-0.0038, -0.0032]

Tensiones actualizadas (módulos y ángulos):

====Iteración Newton-Raphson: 3 ====


Potencias inyectadas calculadas con las tensiones actuales:
U: ComplexF64[1.0 + 0.0im, 0.9552325515794099 + 0.0049383918079862425im, 0.9750706258210387 - 0.04866871581136237im]
Piny_new: [0.0, 0.562436141853299, -0.9997393818870561]
Qiny_new: [0.0, -0.6142417764398618, 0.000132559687846379]

Desbalances de potencias:
ΔPiny: [0.0, 0.0002339984158390429, -0.0002606181129438667]
ΔQiny: [0.0, -0.00019977333585652346, -0.000132559687846379]

Desbalances de ángulos y tensiones (vector columna):
Δθ: [0.0, -0.0]
ΔV: [-0.0, -0.0]

Tensiones actualizadas (módulos y ángulos):

====Iteración Newton-Raphson: 4 ====


Potencias inyectadas calculadas con las tensiones actuales:
U: ComplexF64[1.0 + 0.0im, 0.9552119043036014 + 0.004945883278255521im, 0.9750522304083803 - 0.048678869210184106im]
Piny_new: [0.0, 0.5626701315766415, -0.9999999908959235]
Qiny_new: [0.0, -0.614441543328042, 4.568667960459601e-9]

Desbalances de potencias:
ΔPiny: [0.0, 8.692496611395484e-9, -9.104076492683078e-9]
ΔQiny: [0.0, -6.44767628177334e-9, -4.568667960459601e-9]

¡Convergencia alcanzada!

****Resultados finales****

1. Tensiones finales:
Nodo 1: V = 1.0∠0.0°
Nodo 2: V = 0.9552∠0.2979°
Nodo 3: V = 0.9763∠-2.8591°

2. Potencias generadas por el slack:
Pgen_slack: 0.437329859319289 p.u.
Qgen_slack: 0.6973586528801832 p.u.

3. Pérdidas totales:
P_totales: -4.1157288688253857e-10 p.u.
Q_totales: 0.5594653452704346 p.u.

Violaciones de tensión: 0.0

Tensiones de la línea 1-2:

Corrientes de la línea 1-2:
I_1 = 0.4506∠-96.3065°
I_2 = 0.4506∠83.6935°

Potencias aparentes de la línea 1-2:
S_1 = -0.049499999999999995 + 0.44790000000000063im
S_2 = 0.0495 - 0.4275935340000006im

Violación de flujo en la línea 1-2: 0.0

Tensiones de la línea 1-3:

Corrientes de la línea 1-3:
I_1 = 0.547∠-27.1365°
I_3 = 0.547∠152.8635°

Potencias aparentes de la línea 1-3:
S_1 = 0.4867999999999999 + 0.2494999999999994im
S_3 = -0.48679999999999984 - 0.2195775509999994im

Violación de flujo en la línea 1-3: 0.0

Tensiones de la línea 2-3:

Corrientes de la línea 2-3:
I_2 = 3.5784∠65.1471°
I_3 = 3.3159∠17.5660°

Potencias aparentes de la línea 2-3:
S_2 = 1.30838400467737 - 3.2392147527420967im
S_3 = 3.02459911763718 - 0.9402694778976177im

Violación de flujo en la línea 2-3: 0.0

Pérdidas totales:
P_totales = 4.33298312231455
Q_totales = -4.129255315639714

Información de Generadores:
----------------------------

Generador 1:
Estado u: 0.7229
P inicial: 0.44 MW
Q inicial: 0.7 MVAr
Límites P: [-500, 500] MW
Límites Q: [-100, 100] MVAr
P ajustada: 0.44 MW
Q ajustada: 0.7 MVAr
Estado: Encendido

Generador 2:
Estado u: 0.2542
P inicial: 0.56 MW
Q inicial: -0.61 MVAr
Límites P: [10, 250] MW
Límites Q: [-100, 100] MVAr
P ajustada: 0.56 MW
Q ajustada: -0.61 MVAr
Estado: Encendido

Generador 3:
Estado u: 0.0
P inicial: 0.0 MW
Q inicial: 0.0 MVAr
Límites P: [10, 450] MW
Límites Q: [-100, 100] MVAr
P ajustada: 0.0 MW
Q ajustada: 0.0 MVAr
Estado: Apagado
fitValue: 25.626701394459925

Actualizando partícula 2

Comprobación de potencias generadas y demandadas:
Pd: [0.0, 0.0, 1.0]
Qd: [0.0, 0.0, 0.0]
Pgen: [0.0, 2.1910026333151302, 0.0]
Qgen: [0.0, 0.7425021944292751, 0.0]

Potencias activas inyectadas reales:
Piny: [0.0, 2.1910026333151302, -1.0]

Potencias reactivas inyectadas:
Qiny: [0.0, 0.7425021944292751, 0.0]

====Iteración Newton-Raphson: 1 ====


Potencias inyectadas calculadas con las tensiones actuales:
U: ComplexF64[1.0 + 0.0im, 1.0 + 0.0im, 1.0 + 0.0im]
Piny_new: [0.0, 2.449293598294706e-15, 2.449293598294706e-15]
Qiny_new: [0.0, 0.0, 0.0]

Desbalances de potencias:
ΔPiny: [0.0, 2.1910026333151276, -1.0000000000000024]
ΔQiny: [0.0, 0.7425021944292751, 0.0]

Desbalances de ángulos y tensiones (vector columna):
Δθ: [0.1127, 0.0064]
ΔV: [0.0495, 0.0248]

Tensiones actualizadas (módulos y ángulos):

====Iteración Newton-Raphson: 2 ====


Potencias inyectadas calculadas con las tensiones actuales:
...